* PEX produced on Sat May  2 03:03:56 PM CEST 2026 using /foss/tools/sak/iic-pex.sh with m=3 and s=1
* NGSPICE file created from LDO_V22.ext - technology: sky130A

.subckt LDO_V22 VDD V_ldo V_ref GND
X0 GND.t218 GND.t217 GND.t218 GND.t0 sky130_fd_pr__nfet_01v8_lvt ad=0.0725 pd=0.79 as=0 ps=0 w=0.5 l=1
X1 GND.t216 GND.t215 GND.t216 GND.t176 sky130_fd_pr__nfet_01v8_lvt ad=0.0725 pd=0.79 as=0 ps=0 w=0.5 l=1
X2 a_24898_n32597.t1 V_ldo.t25 GND.t219 sky130_fd_pr__res_xhigh_po_0p35 l=6.13
X3 CG2_0.Vbias.t2 CG2_0.Vbias.t1 GND.t221 GND.t41 sky130_fd_pr__nfet_01v8_lvt ad=0.0725 pd=0.79 as=0.0725 ps=0.79 w=0.5 l=1
X4 GND.t224 CG2_0.Vbias.t4 a_26874_n30469.t4 GND.t0 sky130_fd_pr__nfet_01v8_lvt ad=0.0725 pd=0.79 as=0.0725 ps=0.79 w=0.5 l=1
X5 V_ldo.t28 a_25356_n32542.t9 sky130_fd_pr__cap_mim_m3_1 l=12 w=14
X6 VDD.t250 a_26649_n35120.t5 a_26271_n35924.t1 VDD.t187 sky130_fd_pr__pfet_01v8_lvt ad=0.08555 pd=0.88 as=0.08555 ps=0.88 w=0.59 l=1
X7 VDD.t236 VDD.t235 VDD.t236 VDD.t138 sky130_fd_pr__pfet_01v8_lvt ad=0.725 pd=5.29 as=0 ps=0 w=5 l=1
X8 VDD.t249 a_25356_n32542.t13 a_27390_n30469.t9 VDD.t138 sky130_fd_pr__pfet_01v8_lvt ad=0.725 pd=5.29 as=0.725 ps=5.29 w=5 l=1
X9 GND.t214 GND.t213 GND.t214 GND.t132 sky130_fd_pr__nfet_01v8_lvt ad=0.0725 pd=0.79 as=0 ps=0 w=0.5 l=1
X10 VDD.t234 VDD.t233 VDD.t234 VDD.t135 sky130_fd_pr__pfet_01v8_lvt ad=0.725 pd=5.29 as=0 ps=0 w=5 l=1
X11 VDD.t248 a_25356_n32542.t14 a_26874_n30469.t7 VDD.t135 sky130_fd_pr__pfet_01v8_lvt ad=0.725 pd=5.29 as=0.725 ps=5.29 w=5 l=1
X12 GND.t212 GND.t211 GND.t212 GND.t19 sky130_fd_pr__nfet_01v8_lvt ad=0.0725 pd=0.79 as=0 ps=0 w=0.5 l=1
X13 V_ldo.t29 a_25356_n32542.t8 sky130_fd_pr__cap_mim_m3_1 l=12 w=14
X14 VDD.t18 a_30192_n32542.t11 V_ldo.t6 VDD.t17 sky130_fd_pr__pfet_01v8_lvt ad=6.67 pd=46.29 as=6.67 ps=46.29 w=46 l=1
X15 VDD.t232 VDD.t231 VDD.t232 VDD.t151 sky130_fd_pr__pfet_01v8_lvt ad=0.725 pd=5.29 as=0 ps=0 w=5 l=1
X16 GND.t210 GND.t209 GND.t210 GND.t0 sky130_fd_pr__nfet_01v8_lvt ad=0.0725 pd=0.79 as=0 ps=0 w=0.5 l=1
X17 GND.t25 GND.t26 GND.t24 sky130_fd_pr__res_xhigh_po_0p35 l=4.38
X18 VDD.t230 VDD.t228 VDD.t229 VDD.t144 sky130_fd_pr__pfet_01v8_lvt ad=1.45 pd=10.58 as=0 ps=0 w=5 l=1
X19 GND.t208 GND.t207 GND.t208 GND.t10 sky130_fd_pr__nfet_01v8_lvt ad=0.0725 pd=0.79 as=0 ps=0 w=0.5 l=1
X20 VDD.t227 VDD.t226 VDD.t227 VDD.t125 sky130_fd_pr__pfet_01v8_lvt ad=0.08555 pd=0.88 as=0 ps=0 w=0.59 l=1
X21 a_26271_n35924.t0 a_26649_n35120.t1 GND.t30 sky130_fd_pr__res_xhigh_po_0p35 l=1.75
X22 a_24646_n35924.t28 a_24646_n35924.t27 a_24646_n35924.t28 VDD.t21 sky130_fd_pr__pfet_01v8_lvt ad=0.0725 pd=0.79 as=0 ps=0 w=0.5 l=1
X23 VDD.t225 VDD.t224 VDD.t225 VDD.t141 sky130_fd_pr__pfet_01v8_lvt ad=0.725 pd=5.29 as=0 ps=0 w=5 l=1
X24 GND.t206 GND.t205 GND.t206 GND.t132 sky130_fd_pr__nfet_01v8_lvt ad=0.0725 pd=0.79 as=0 ps=0 w=0.5 l=1
X25 GND.t204 GND.t203 GND.t204 GND.t13 sky130_fd_pr__nfet_01v8_lvt ad=0.0725 pd=0.79 as=0 ps=0 w=0.5 l=1
X26 VDD.t223 VDD.t222 VDD.t223 VDD.t129 sky130_fd_pr__pfet_01v8_lvt ad=0.725 pd=5.29 as=0 ps=0 w=5 l=1
X27 a_30192_n32542.t9 a_26874_n30469.t9 VDD.t272 VDD.t129 sky130_fd_pr__pfet_01v8_lvt ad=0.725 pd=5.29 as=0.725 ps=5.29 w=5 l=1
X28 V_ldo.t18 V_ldo.t17 V_ldo.t18 VDD.t237 sky130_fd_pr__pfet_01v8_lvt ad=6.67 pd=46.29 as=0 ps=0 w=46 l=1
X29 GND.t34 GND.t35 GND.t2 sky130_fd_pr__res_xhigh_po_0p35 l=5.25
X30 VDD.t221 VDD.t220 VDD.t221 VDD.t132 sky130_fd_pr__pfet_01v8_lvt ad=0.725 pd=5.29 as=0 ps=0 w=5 l=1
X31 GND.t202 GND.t200 GND.t201 GND.t60 sky130_fd_pr__nfet_01v8_lvt ad=0.145 pd=1.58 as=0 ps=0 w=0.5 l=1
X32 V_ldo.t30 a_25356_n32542.t7 sky130_fd_pr__cap_mim_m3_1 l=12 w=14
X33 VDD.t40 a_30192_n32542.t12 V_ldo.t14 VDD.t39 sky130_fd_pr__pfet_01v8_lvt ad=6.67 pd=46.29 as=6.67 ps=46.29 w=46 l=1
X34 GND.t199 GND.t198 GND.t199 GND.t159 sky130_fd_pr__nfet_01v8_lvt ad=0.0725 pd=0.79 as=0 ps=0 w=0.5 l=1
X35 a_26874_n30469.t3 CG2_0.Vbias.t5 GND.t21 GND.t0 sky130_fd_pr__nfet_01v8_lvt ad=0.0725 pd=0.79 as=0.0725 ps=0.79 w=0.5 l=1
X36 a_24898_n32597.t0 GND.t32 GND.t2 sky130_fd_pr__res_xhigh_po_0p35 l=5.25
X37 VDD.t219 VDD.t218 VDD.t219 VDD.t119 sky130_fd_pr__pfet_01v8_lvt ad=0.725 pd=5.29 as=0 ps=0 w=5 l=1
X38 a_26874_n30469.t6 a_25356_n32542.t15 VDD.t247 VDD.t119 sky130_fd_pr__pfet_01v8_lvt ad=0.725 pd=5.29 as=0.725 ps=5.29 w=5 l=1
X39 a_24582_n32542.t15 a_24582_n32542.t13 a_24582_n32542.t14 GND.t23 sky130_fd_pr__nfet_01v8_lvt ad=0.145 pd=1.58 as=0 ps=0 w=0.5 l=1
X40 VDD.t217 VDD.t216 VDD.t217 VDD.t112 sky130_fd_pr__pfet_01v8_lvt ad=0.725 pd=5.29 as=0 ps=0 w=5 l=1
X41 VDD.t246 a_25356_n32542.t16 a_26874_n30469.t0 VDD.t112 sky130_fd_pr__pfet_01v8_lvt ad=0.725 pd=5.29 as=0.725 ps=5.29 w=5 l=1
X42 a_30192_n32542.t3 a_27390_n30469.t10 GND.t1 GND.t0 sky130_fd_pr__nfet_01v8_lvt ad=0.0725 pd=0.79 as=0.0725 ps=0.79 w=0.5 l=1
X43 GND.t197 GND.t196 GND.t197 GND.t0 sky130_fd_pr__nfet_01v8_lvt ad=0.0725 pd=0.79 as=0 ps=0 w=0.5 l=1
X44 V_ldo.t1 a_30192_n32542.t13 VDD.t3 VDD.t2 sky130_fd_pr__pfet_01v8_lvt ad=6.67 pd=46.29 as=6.67 ps=46.29 w=46 l=1
X45 VDD.t215 VDD.t212 VDD.t214 VDD.t213 sky130_fd_pr__pfet_01v8_lvt ad=13.34 pd=92.58 as=0 ps=0 w=46 l=1
X46 a_24646_n35924.t1 a_25135_n35138.t0 GND.t33 sky130_fd_pr__res_xhigh_po_0p35 l=1.75
X47 a_26874_n30469.t8 a_30192_n32542.t10 GND.t233 sky130_fd_pr__res_xhigh_po_0p35 l=4.38
X48 VDD.t211 VDD.t210 VDD.t211 VDD.t122 sky130_fd_pr__pfet_01v8_lvt ad=0.725 pd=5.29 as=0 ps=0 w=5 l=1
X49 V_ldo.t24 a_30192_n32542.t14 VDD.t266 VDD.t265 sky130_fd_pr__pfet_01v8_lvt ad=6.67 pd=46.29 as=6.67 ps=46.29 w=46 l=1
X50 GND.t195 GND.t194 GND.t195 GND.t0 sky130_fd_pr__nfet_01v8_lvt ad=0.0725 pd=0.79 as=0 ps=0 w=0.5 l=1
X51 GND.t193 GND.t192 GND.t193 GND.t57 sky130_fd_pr__nfet_01v8_lvt ad=0.0725 pd=0.79 as=0 ps=0 w=0.5 l=1
X52 GND.t191 GND.t190 GND.t191 GND.t54 sky130_fd_pr__nfet_01v8_lvt ad=0.0725 pd=0.79 as=0 ps=0 w=0.5 l=1
X53 a_26079_n35175.t0 a_26271_n35924.t5 VDD.t258 VDD.t257 sky130_fd_pr__pfet_01v8_lvt ad=0.145 pd=1.58 as=0.145 ps=1.58 w=0.5 l=1
X54 GND.t189 GND.t188 GND.t189 GND.t0 sky130_fd_pr__nfet_01v8_lvt ad=0.0725 pd=0.79 as=0 ps=0 w=0.5 l=1
X55 GND.t187 GND.t185 GND.t186 GND.t92 sky130_fd_pr__nfet_01v8_lvt ad=0.145 pd=1.58 as=0 ps=0 w=0.5 l=1
X56 a_25045_n33883.t1 a_25045_n33883.t0 a_25045_n33883.t1 VDD.t5 sky130_fd_pr__pfet_01v8_lvt ad=0.0725 pd=0.79 as=0 ps=0 w=0.5 l=1
X57 VDD.t209 VDD.t207 VDD.t208 VDD.t46 sky130_fd_pr__pfet_01v8_lvt ad=1.45 pd=10.58 as=0 ps=0 w=5 l=1
X58 a_24582_n32542.t12 a_24582_n32542.t10 a_24582_n32542.t11 VDD.t46 sky130_fd_pr__pfet_01v8_lvt ad=1.45 pd=10.58 as=0 ps=0 w=5 l=1
X59 a_24646_n35924.t26 a_24646_n35924.t24 a_24646_n35924.t25 VDD.t41 sky130_fd_pr__pfet_01v8_lvt ad=0.232 pd=2.18 as=0 ps=0 w=0.8 l=1
X60 VDD.t45 a_30192_n32542.t15 V_ldo.t16 VDD.t44 sky130_fd_pr__pfet_01v8_lvt ad=6.67 pd=46.29 as=6.67 ps=46.29 w=46 l=1
X61 V_ldo.t2 a_30192_n32542.t16 VDD.t8 VDD.t7 sky130_fd_pr__pfet_01v8_lvt ad=6.67 pd=46.29 as=6.67 ps=46.29 w=46 l=1
X62 GND.t226 GND.t227 GND.t225 sky130_fd_pr__res_xhigh_po_0p35 l=4.38
X63 VDD.t206 VDD.t205 VDD.t206 VDD.t109 sky130_fd_pr__pfet_01v8_lvt ad=0.725 pd=5.29 as=0 ps=0 w=5 l=1
X64 VDD.t204 VDD.t203 VDD.t204 VDD.t106 sky130_fd_pr__pfet_01v8_lvt ad=0.725 pd=5.29 as=0 ps=0 w=5 l=1
X65 GND.t234 a_25135_n35138.t4 a_25045_n33883.t4 GND.t92 sky130_fd_pr__nfet_01v8_lvt ad=0.0725 pd=0.79 as=0.145 ps=1.58 w=0.5 l=1
X66 a_25098_n32542.t9 CG2_0.Vbias.t6 GND.t37 GND.t0 sky130_fd_pr__nfet_01v8_lvt ad=0.0725 pd=0.79 as=0.0725 ps=0.79 w=0.5 l=1
X67 GND.t184 GND.t183 GND.t184 GND.t0 sky130_fd_pr__nfet_01v8_lvt ad=0.0725 pd=0.79 as=0 ps=0 w=0.5 l=1
X68 a_27390_n30469.t8 a_25356_n32542.t17 VDD.t245 VDD.t93 sky130_fd_pr__pfet_01v8_lvt ad=0.725 pd=5.29 as=0.725 ps=5.29 w=5 l=1
X69 a_24646_n35924.t23 a_24646_n35924.t22 a_24646_n35924.t23 VDD.t9 sky130_fd_pr__pfet_01v8_lvt ad=0.0725 pd=0.79 as=0 ps=0 w=0.5 l=1
X70 GND.t3 GND.t4 GND.t2 sky130_fd_pr__res_xhigh_po_0p35 l=5.25
X71 VDD.t202 VDD.t201 VDD.t202 VDD.t93 sky130_fd_pr__pfet_01v8_lvt ad=0.725 pd=5.29 as=0 ps=0 w=5 l=1
X72 GND.t182 GND.t180 GND.t181 GND.t0 sky130_fd_pr__nfet_01v8_lvt ad=0.145 pd=1.58 as=0 ps=0 w=0.5 l=1
X73 GND.t179 GND.t178 GND.t179 GND.t0 sky130_fd_pr__nfet_01v8_lvt ad=0.0725 pd=0.79 as=0 ps=0 w=0.5 l=1
X74 VDD.t200 VDD.t199 VDD.t200 VDD.t32 sky130_fd_pr__pfet_01v8_lvt ad=0.725 pd=5.29 as=0 ps=0 w=5 l=1
X75 GND.t177 GND.t175 GND.t177 GND.t176 sky130_fd_pr__nfet_01v8_lvt ad=0.0725 pd=0.79 as=0 ps=0 w=0.5 l=1
X76 VDD.t198 VDD.t197 VDD.t198 VDD.t19 sky130_fd_pr__pfet_01v8_lvt ad=0.725 pd=5.29 as=0 ps=0 w=5 l=1
X77 VDD.t196 VDD.t195 VDD.t196 VDD.t96 sky130_fd_pr__pfet_01v8_lvt ad=0.725 pd=5.29 as=0 ps=0 w=5 l=1
X78 VDD.t194 VDD.t193 VDD.t194 VDD.t65 sky130_fd_pr__pfet_01v8_lvt ad=0.08555 pd=0.88 as=0 ps=0 w=0.59 l=1
X79 GND.t174 GND.t173 GND.t174 GND.t17 sky130_fd_pr__nfet_01v8_lvt ad=0.0725 pd=0.79 as=0 ps=0 w=0.5 l=1
X80 GND.t14 a_27390_n30469.t2 a_27390_n30469.t3 GND.t0 sky130_fd_pr__nfet_01v8_lvt ad=0.0725 pd=0.79 as=0.0725 ps=0.79 w=0.5 l=1
X81 a_25045_n33883.t3 a_25045_n33883.t2 VDD.t10 VDD.t5 sky130_fd_pr__pfet_01v8_lvt ad=0.0725 pd=0.79 as=0.0725 ps=0.79 w=0.5 l=1
X82 a_24646_n35924.t21 a_24646_n35924.t19 a_24646_n35924.t20 VDD.t5 sky130_fd_pr__pfet_01v8_lvt ad=0.145 pd=1.58 as=0 ps=0 w=0.5 l=1
X83 VDD.t192 VDD.t191 VDD.t192 VDD.t84 sky130_fd_pr__pfet_01v8_lvt ad=0.725 pd=5.29 as=0 ps=0 w=5 l=1
X84 a_30192_n32542.t8 a_26874_n30469.t10 VDD.t271 VDD.t84 sky130_fd_pr__pfet_01v8_lvt ad=0.725 pd=5.29 as=0.725 ps=5.29 w=5 l=1
X85 VDD.t190 VDD.t189 VDD.t190 VDD.t87 sky130_fd_pr__pfet_01v8_lvt ad=0.725 pd=5.29 as=0 ps=0 w=5 l=1
X86 GND.t12 CG2_0.Vbias.t7 a_25098_n32542.t8 GND.t0 sky130_fd_pr__nfet_01v8_lvt ad=0.0725 pd=0.79 as=0.0725 ps=0.79 w=0.5 l=1
X87 a_24646_n35924.t18 a_24646_n35924.t16 a_24646_n35924.t17 VDD.t4 sky130_fd_pr__pfet_01v8_lvt ad=0.232 pd=2.18 as=0 ps=0 w=0.8 l=1
X88 V_ldo.t23 a_30192_n32542.t17 VDD.t264 VDD.t263 sky130_fd_pr__pfet_01v8_lvt ad=6.67 pd=46.29 as=6.67 ps=46.29 w=46 l=1
X89 VDD.t188 VDD.t186 VDD.t188 VDD.t187 sky130_fd_pr__pfet_01v8_lvt ad=0.08555 pd=0.88 as=0 ps=0 w=0.59 l=1
X90 GND.t172 GND.t171 GND.t172 GND.t0 sky130_fd_pr__nfet_01v8_lvt ad=0.0725 pd=0.79 as=0 ps=0 w=0.5 l=1
X91 a_24646_n35924.t15 a_24646_n35924.t14 a_24646_n35924.t15 VDD.t9 sky130_fd_pr__pfet_01v8_lvt ad=0.0725 pd=0.79 as=0 ps=0 w=0.5 l=1
X92 GND.t170 GND.t168 GND.t169 GND.t23 sky130_fd_pr__nfet_01v8_lvt ad=0.145 pd=1.58 as=0 ps=0 w=0.5 l=1
X93 a_24646_n35924.t13 a_24646_n35924.t11 a_24646_n35924.t12 VDD.t9 sky130_fd_pr__pfet_01v8_lvt ad=0.145 pd=1.58 as=0 ps=0 w=0.5 l=1
X94 VDD.t185 VDD.t184 VDD.t185 VDD.t78 sky130_fd_pr__pfet_01v8_lvt ad=0.725 pd=5.29 as=0 ps=0 w=5 l=1
X95 a_26874_n30469.t1 a_25356_n32542.t18 VDD.t244 VDD.t78 sky130_fd_pr__pfet_01v8_lvt ad=0.725 pd=5.29 as=0.725 ps=5.29 w=5 l=1
X96 GND.t167 GND.t166 GND.t167 GND.t0 sky130_fd_pr__nfet_01v8_lvt ad=0.0725 pd=0.79 as=0 ps=0 w=0.5 l=1
X97 a_24582_n32542.t9 a_24582_n32542.t8 a_24582_n32542.t9 GND.t27 sky130_fd_pr__nfet_01v8_lvt ad=0.0725 pd=0.79 as=0 ps=0 w=0.5 l=1
X98 GND.t165 GND.t164 GND.t165 GND.t8 sky130_fd_pr__nfet_01v8_lvt ad=0.0725 pd=0.79 as=0 ps=0 w=0.5 l=1
X99 GND.t163 GND.t161 GND.t162 GND.t60 sky130_fd_pr__nfet_01v8_lvt ad=0.145 pd=1.58 as=0 ps=0 w=0.5 l=1
X100 VDD.t183 VDD.t182 VDD.t183 VDD.t125 sky130_fd_pr__pfet_01v8_lvt ad=0.08555 pd=0.88 as=0 ps=0 w=0.59 l=1
X101 VDD.t25 a_30192_n32542.t18 V_ldo.t8 VDD.t24 sky130_fd_pr__pfet_01v8_lvt ad=6.67 pd=46.29 as=6.67 ps=46.29 w=46 l=1
X102 V_ldo.t20 a_30192_n32542.t19 VDD.t254 VDD.t253 sky130_fd_pr__pfet_01v8_lvt ad=6.67 pd=46.29 as=6.67 ps=46.29 w=46 l=1
X103 VDD.t181 VDD.t180 VDD.t181 VDD.t81 sky130_fd_pr__pfet_01v8_lvt ad=0.725 pd=5.29 as=0 ps=0 w=5 l=1
X104 GND.t160 GND.t158 GND.t160 GND.t159 sky130_fd_pr__nfet_01v8_lvt ad=0.0725 pd=0.79 as=0 ps=0 w=0.5 l=1
X105 GND.t157 GND.t156 GND.t157 GND.t15 sky130_fd_pr__nfet_01v8_lvt ad=0.09715 pd=0.96 as=0 ps=0 w=0.67 l=1
X106 a_27390_n30469.t1 a_27390_n30469.t0 GND.t22 GND.t0 sky130_fd_pr__nfet_01v8_lvt ad=0.0725 pd=0.79 as=0.0725 ps=0.79 w=0.5 l=1
X107 GND.t28 a_27390_n30469.t11 a_30192_n32542.t2 GND.t0 sky130_fd_pr__nfet_01v8_lvt ad=0.0725 pd=0.79 as=0.0725 ps=0.79 w=0.5 l=1
X108 GND.t155 GND.t154 GND.t155 GND.t0 sky130_fd_pr__nfet_01v8_lvt ad=0.0725 pd=0.79 as=0 ps=0 w=0.5 l=1
X109 a_25135_n35138.t3 a_24646_n35924.t29 GND.t16 GND.t15 sky130_fd_pr__nfet_01v8_lvt ad=0.09715 pd=0.96 as=0.09715 ps=0.96 w=0.67 l=1
X110 VDD.t179 VDD.t178 VDD.t179 VDD.t38 sky130_fd_pr__pfet_01v8_lvt ad=0.725 pd=5.29 as=0 ps=0 w=5 l=1
X111 a_24582_n32542.t7 a_24582_n32542.t6 a_24582_n32542.t7 VDD.t38 sky130_fd_pr__pfet_01v8_lvt ad=0.725 pd=5.29 as=0 ps=0 w=5 l=1
X112 VDD.t31 a_30192_n32542.t20 V_ldo.t11 VDD.t30 sky130_fd_pr__pfet_01v8_lvt ad=6.67 pd=46.29 as=6.67 ps=46.29 w=46 l=1
X113 VDD.t177 VDD.t176 VDD.t177 VDD.t75 sky130_fd_pr__pfet_01v8_lvt ad=0.725 pd=5.29 as=0 ps=0 w=5 l=1
X114 GND.t153 GND.t152 GND.t153 GND.t0 sky130_fd_pr__nfet_01v8_lvt ad=0.0725 pd=0.79 as=0 ps=0 w=0.5 l=1
X115 VDD.t175 VDD.t174 VDD.t175 VDD.t70 sky130_fd_pr__pfet_01v8_lvt ad=0.725 pd=5.29 as=0 ps=0 w=5 l=1
X116 GND.t151 GND.t150 GND.t151 GND.t0 sky130_fd_pr__nfet_01v8_lvt ad=0.0725 pd=0.79 as=0 ps=0 w=0.5 l=1
X117 V_ldo.t5 a_30192_n32542.t21 VDD.t16 VDD.t15 sky130_fd_pr__pfet_01v8_lvt ad=6.67 pd=46.29 as=6.67 ps=46.29 w=46 l=1
X118 GND.t220 CG2_0.Vbias.t8 a_25098_n32542.t7 GND.t0 sky130_fd_pr__nfet_01v8_lvt ad=0.0725 pd=0.79 as=0.0725 ps=0.79 w=0.5 l=1
X119 VDD.t173 VDD.t171 VDD.t172 VDD.t55 sky130_fd_pr__pfet_01v8_lvt ad=1.45 pd=10.58 as=0 ps=0 w=5 l=1
X120 VDD.t170 VDD.t169 VDD.t170 VDD.t52 sky130_fd_pr__pfet_01v8_lvt ad=0.725 pd=5.29 as=0 ps=0 w=5 l=1
X121 VDD.t168 VDD.t166 VDD.t167 VDD.t55 sky130_fd_pr__pfet_01v8_lvt ad=1.45 pd=10.58 as=0 ps=0 w=5 l=1
X122 a_27390_n30469.t7 a_25356_n32542.t19 VDD.t243 VDD.t52 sky130_fd_pr__pfet_01v8_lvt ad=0.725 pd=5.29 as=0.725 ps=5.29 w=5 l=1
X123 GND.t149 GND.t147 GND.t148 GND.t29 sky130_fd_pr__nfet_01v8_lvt ad=0.145 pd=1.58 as=0 ps=0 w=0.5 l=1
X124 GND.t146 GND.t144 GND.t145 GND.t0 sky130_fd_pr__nfet_01v8_lvt ad=0.145 pd=1.58 as=0 ps=0 w=0.5 l=1
X125 VDD.t165 VDD.t162 VDD.t164 VDD.t163 sky130_fd_pr__pfet_01v8_lvt ad=0.145 pd=1.58 as=0 ps=0 w=0.5 l=1
X126 VDD.t161 VDD.t160 VDD.t161 VDD.t62 sky130_fd_pr__pfet_01v8_lvt ad=0.725 pd=5.29 as=0 ps=0 w=5 l=1
X127 VDD.t1 a_30192_n32542.t22 V_ldo.t0 VDD.t0 sky130_fd_pr__pfet_01v8_lvt ad=6.67 pd=46.29 as=6.67 ps=46.29 w=46 l=1
X128 VDD.t159 VDD.t158 VDD.t159 VDD.t59 sky130_fd_pr__pfet_01v8_lvt ad=0.725 pd=5.29 as=0 ps=0 w=5 l=1
X129 GND.t143 GND.t142 GND.t143 GND.t0 sky130_fd_pr__nfet_01v8_lvt ad=0.0725 pd=0.79 as=0 ps=0 w=0.5 l=1
X130 VDD.t262 a_30192_n32542.t23 V_ldo.t22 VDD.t261 sky130_fd_pr__pfet_01v8_lvt ad=6.67 pd=46.29 as=6.67 ps=46.29 w=46 l=1
X131 a_30192_n32542.t1 a_27390_n30469.t12 GND.t228 GND.t0 sky130_fd_pr__nfet_01v8_lvt ad=0.0725 pd=0.79 as=0.0725 ps=0.79 w=0.5 l=1
X132 GND.t141 GND.t140 GND.t141 GND.t44 sky130_fd_pr__nfet_01v8_lvt ad=0.0725 pd=0.79 as=0 ps=0 w=0.5 l=1
X133 GND.t139 GND.t138 GND.t139 GND.t0 sky130_fd_pr__nfet_01v8_lvt ad=0.0725 pd=0.79 as=0 ps=0 w=0.5 l=1
X134 V_ldo.t31 a_25356_n32542.t6 sky130_fd_pr__cap_mim_m3_1 l=12 w=14
X135 VDD.t157 VDD.t155 VDD.t156 VDD.t65 sky130_fd_pr__pfet_01v8_lvt ad=0.1711 pd=1.76 as=0 ps=0 w=0.59 l=1
X136 VDD.t6 a_25045_n33883.t5 a_24646_n35924.t0 VDD.t5 sky130_fd_pr__pfet_01v8_lvt ad=0.0725 pd=0.79 as=0.0725 ps=0.79 w=0.5 l=1
X137 VDD.t154 VDD.t153 VDD.t154 VDD.t151 sky130_fd_pr__pfet_01v8_lvt ad=0.725 pd=5.29 as=0 ps=0 w=5 l=1
X138 VDD.t152 VDD.t150 VDD.t152 VDD.t151 sky130_fd_pr__pfet_01v8_lvt ad=0.725 pd=5.29 as=0 ps=0 w=5 l=1
X139 GND.t137 GND.t136 GND.t137 GND.t41 sky130_fd_pr__nfet_01v8_lvt ad=0.0725 pd=0.79 as=0 ps=0 w=0.5 l=1
X140 VDD.t149 VDD.t147 VDD.t148 VDD.t144 sky130_fd_pr__pfet_01v8_lvt ad=1.45 pd=10.58 as=0 ps=0 w=5 l=1
X141 VDD.t146 VDD.t143 VDD.t145 VDD.t144 sky130_fd_pr__pfet_01v8_lvt ad=1.45 pd=10.58 as=0 ps=0 w=5 l=1
X142 VDD.t142 VDD.t140 VDD.t142 VDD.t141 sky130_fd_pr__pfet_01v8_lvt ad=0.725 pd=5.29 as=0 ps=0 w=5 l=1
X143 VDD.t270 a_26874_n30469.t11 a_30192_n32542.t7 VDD.t141 sky130_fd_pr__pfet_01v8_lvt ad=0.725 pd=5.29 as=0.725 ps=5.29 w=5 l=1
X144 V_ldo.t32 a_25356_n32542.t5 sky130_fd_pr__cap_mim_m3_1 l=12 w=14
X145 V_ldo.t33 a_25356_n32542.t4 sky130_fd_pr__cap_mim_m3_1 l=12 w=14
X146 VDD.t139 VDD.t137 VDD.t139 VDD.t138 sky130_fd_pr__pfet_01v8_lvt ad=0.725 pd=5.29 as=0 ps=0 w=5 l=1
X147 VDD.t43 a_30192_n32542.t24 V_ldo.t15 VDD.t42 sky130_fd_pr__pfet_01v8_lvt ad=6.67 pd=46.29 as=6.67 ps=46.29 w=46 l=1
X148 VDD.t136 VDD.t134 VDD.t136 VDD.t135 sky130_fd_pr__pfet_01v8_lvt ad=0.725 pd=5.29 as=0 ps=0 w=5 l=1
X149 GND.t135 GND.t134 GND.t135 GND.t0 sky130_fd_pr__nfet_01v8_lvt ad=0.0725 pd=0.79 as=0 ps=0 w=0.5 l=1
X150 a_25098_n32542.t6 CG2_0.Vbias.t9 GND.t20 GND.t19 sky130_fd_pr__nfet_01v8_lvt ad=0.0725 pd=0.79 as=0.0725 ps=0.79 w=0.5 l=1
X151 VDD.t29 a_30192_n32542.t25 V_ldo.t10 VDD.t28 sky130_fd_pr__pfet_01v8_lvt ad=6.67 pd=46.29 as=6.67 ps=46.29 w=46 l=1
X152 V_ldo.t34 a_25356_n32542.t3 sky130_fd_pr__cap_mim_m3_1 l=12 w=14
X153 V_ldo.t4 a_30192_n32542.t26 VDD.t14 VDD.t13 sky130_fd_pr__pfet_01v8_lvt ad=6.67 pd=46.29 as=6.67 ps=46.29 w=46 l=1
X154 GND.t11 CG2_0.Vbias.t10 a_25098_n32542.t5 GND.t10 sky130_fd_pr__nfet_01v8_lvt ad=0.0725 pd=0.79 as=0.0725 ps=0.79 w=0.5 l=1
X155 a_25098_n32542.t4 CG2_0.Vbias.t11 GND.t222 GND.t0 sky130_fd_pr__nfet_01v8_lvt ad=0.0725 pd=0.79 as=0.0725 ps=0.79 w=0.5 l=1
X156 a_24646_n35924.t10 a_24646_n35924.t9 a_24646_n35924.t10 VDD.t9 sky130_fd_pr__pfet_01v8_lvt ad=0.0725 pd=0.79 as=0 ps=0 w=0.5 l=1
X157 a_26271_n35924.t4 a_26271_n35924.t2 a_26271_n35924.t3 VDD.t187 sky130_fd_pr__pfet_01v8_lvt ad=0.1711 pd=1.76 as=0 ps=0 w=0.59 l=1
X158 GND.t133 GND.t131 GND.t133 GND.t132 sky130_fd_pr__nfet_01v8_lvt ad=0.0725 pd=0.79 as=0 ps=0 w=0.5 l=1
X159 GND.t130 GND.t129 GND.t130 GND.t27 sky130_fd_pr__nfet_01v8_lvt ad=0.0725 pd=0.79 as=0 ps=0 w=0.5 l=1
X160 a_24582_n32542.t0 a_24898_n32597.t2 a_25098_n32542.t1 GND.t13 sky130_fd_pr__nfet_01v8_lvt ad=0.0725 pd=0.79 as=0.0725 ps=0.79 w=0.5 l=1
X161 VDD.t133 VDD.t131 VDD.t133 VDD.t132 sky130_fd_pr__pfet_01v8_lvt ad=0.725 pd=5.29 as=0 ps=0 w=5 l=1
X162 VDD.t242 a_25356_n32542.t20 a_26874_n30469.t5 VDD.t132 sky130_fd_pr__pfet_01v8_lvt ad=0.725 pd=5.29 as=0.725 ps=5.29 w=5 l=1
X163 VDD.t260 a_30192_n32542.t27 V_ldo.t21 VDD.t259 sky130_fd_pr__pfet_01v8_lvt ad=6.67 pd=46.29 as=6.67 ps=46.29 w=46 l=1
X164 VDD.t130 VDD.t128 VDD.t130 VDD.t129 sky130_fd_pr__pfet_01v8_lvt ad=0.725 pd=5.29 as=0 ps=0 w=5 l=1
X165 GND.t128 GND.t127 GND.t128 GND.t0 sky130_fd_pr__nfet_01v8_lvt ad=0.0725 pd=0.79 as=0 ps=0 w=0.5 l=1
X166 V_ldo.t35 a_25356_n32542.t2 sky130_fd_pr__cap_mim_m3_1 l=12 w=14
X167 GND.t126 GND.t124 GND.t125 GND.t70 sky130_fd_pr__nfet_01v8_lvt ad=0.1943 pd=1.92 as=0 ps=0 w=0.67 l=1
X168 GND.t123 GND.t122 GND.t123 GND.t0 sky130_fd_pr__nfet_01v8_lvt ad=0.0725 pd=0.79 as=0 ps=0 w=0.5 l=1
X169 GND.t121 GND.t120 GND.t121 GND.t0 sky130_fd_pr__nfet_01v8_lvt ad=0.0725 pd=0.79 as=0 ps=0 w=0.5 l=1
X170 VDD.t127 VDD.t124 VDD.t126 VDD.t125 sky130_fd_pr__pfet_01v8_lvt ad=0.1711 pd=1.76 as=0 ps=0 w=0.59 l=1
X171 GND.t119 GND.t117 GND.t118 GND.t23 sky130_fd_pr__nfet_01v8_lvt ad=0.145 pd=1.58 as=0 ps=0 w=0.5 l=1
X172 GND.t116 GND.t115 GND.t116 GND.t0 sky130_fd_pr__nfet_01v8_lvt ad=0.0725 pd=0.79 as=0 ps=0 w=0.5 l=1
X173 V_ldo.t36 a_25356_n32542.t1 sky130_fd_pr__cap_mim_m3_1 l=12 w=14
X174 GND.t114 GND.t113 GND.t114 GND.t15 sky130_fd_pr__nfet_01v8_lvt ad=0.09715 pd=0.96 as=0 ps=0 w=0.67 l=1
X175 GND.t112 GND.t110 GND.t111 GND.t70 sky130_fd_pr__nfet_01v8_lvt ad=0.1943 pd=1.92 as=0 ps=0 w=0.67 l=1
X176 VDD.t123 VDD.t121 VDD.t123 VDD.t122 sky130_fd_pr__pfet_01v8_lvt ad=0.725 pd=5.29 as=0 ps=0 w=5 l=1
X177 a_24582_n32542.t5 a_24582_n32542.t4 VDD.t278 VDD.t122 sky130_fd_pr__pfet_01v8_lvt ad=0.725 pd=5.29 as=0.725 ps=5.29 w=5 l=1
X178 V_ldo.t3 a_30192_n32542.t28 VDD.t12 VDD.t11 sky130_fd_pr__pfet_01v8_lvt ad=6.67 pd=46.29 as=6.67 ps=46.29 w=46 l=1
X179 GND.t230 GND.t231 GND.t219 sky130_fd_pr__res_xhigh_po_0p35 l=6.13
X180 VDD.t120 VDD.t118 VDD.t120 VDD.t119 sky130_fd_pr__pfet_01v8_lvt ad=0.725 pd=5.29 as=0 ps=0 w=5 l=1
X181 VDD.t117 VDD.t114 VDD.t116 VDD.t115 sky130_fd_pr__pfet_01v8_lvt ad=13.34 pd=92.58 as=0 ps=0 w=46 l=1
X182 VDD.t113 VDD.t111 VDD.t113 VDD.t112 sky130_fd_pr__pfet_01v8_lvt ad=0.725 pd=5.29 as=0 ps=0 w=5 l=1
X183 GND.t109 GND.t108 GND.t109 GND.t0 sky130_fd_pr__nfet_01v8_lvt ad=0.0725 pd=0.79 as=0 ps=0 w=0.5 l=1
X184 GND.t107 GND.t106 GND.t107 GND.t0 sky130_fd_pr__nfet_01v8_lvt ad=0.0725 pd=0.79 as=0 ps=0 w=0.5 l=1
X185 GND.t105 GND.t104 GND.t105 GND.t0 sky130_fd_pr__nfet_01v8_lvt ad=0.0725 pd=0.79 as=0 ps=0 w=0.5 l=1
X186 a_25098_n32542.t10 V_ref.t0 a_25356_n32542.t10 GND.t57 sky130_fd_pr__nfet_01v8_lvt ad=0.0725 pd=0.79 as=0.0725 ps=0.79 w=0.5 l=1
X187 VDD.t110 VDD.t108 VDD.t110 VDD.t109 sky130_fd_pr__pfet_01v8_lvt ad=0.725 pd=5.29 as=0 ps=0 w=5 l=1
X188 VDD.t107 VDD.t105 VDD.t107 VDD.t106 sky130_fd_pr__pfet_01v8_lvt ad=0.725 pd=5.29 as=0 ps=0 w=5 l=1
X189 a_26874_n30469.t2 a_25356_n32542.t21 VDD.t241 VDD.t109 sky130_fd_pr__pfet_01v8_lvt ad=0.725 pd=5.29 as=0.725 ps=5.29 w=5 l=1
X190 VDD.t240 a_25356_n32542.t22 a_27390_n30469.t6 VDD.t106 sky130_fd_pr__pfet_01v8_lvt ad=0.725 pd=5.29 as=0.725 ps=5.29 w=5 l=1
X191 a_25098_n32542.t0 a_24898_n32597.t3 a_24582_n32542.t1 GND.t54 sky130_fd_pr__nfet_01v8_lvt ad=0.0725 pd=0.79 as=0.0725 ps=0.79 w=0.5 l=1
X192 GND.t103 GND.t102 GND.t103 GND.t0 sky130_fd_pr__nfet_01v8_lvt ad=0.0725 pd=0.79 as=0 ps=0 w=0.5 l=1
X193 V_ldo.t19 a_30192_n32542.t29 VDD.t252 VDD.t251 sky130_fd_pr__pfet_01v8_lvt ad=6.67 pd=46.29 as=6.67 ps=46.29 w=46 l=1
X194 GND.t101 GND.t100 GND.t101 GND.t31 sky130_fd_pr__nfet_01v8_lvt ad=0.09715 pd=0.96 as=0 ps=0 w=0.67 l=1
X195 VDD.t104 VDD.t102 VDD.t103 VDD.t46 sky130_fd_pr__pfet_01v8_lvt ad=1.45 pd=10.58 as=0 ps=0 w=5 l=1
X196 GND.t99 GND.t98 GND.t99 GND.t0 sky130_fd_pr__nfet_01v8_lvt ad=0.0725 pd=0.79 as=0 ps=0 w=0.5 l=1
X197 a_24646_n35924.t8 a_24646_n35924.t7 a_24646_n35924.t8 VDD.t21 sky130_fd_pr__pfet_01v8_lvt ad=0.0725 pd=0.79 as=0 ps=0 w=0.5 l=1
X198 GND.t97 GND.t95 GND.t96 GND.t0 sky130_fd_pr__nfet_01v8_lvt ad=0.145 pd=1.58 as=0 ps=0 w=0.5 l=1
X199 GND.t94 GND.t91 GND.t93 GND.t92 sky130_fd_pr__nfet_01v8_lvt ad=0.145 pd=1.58 as=0 ps=0 w=0.5 l=1
X200 a_25135_n35138.t2 a_25135_n35138.t1 a_25135_n35138.t2 GND.t31 sky130_fd_pr__nfet_01v8_lvt ad=0.09715 pd=0.96 as=0 ps=0 w=0.67 l=1
X201 GND.t90 GND.t89 GND.t90 GND.t17 sky130_fd_pr__nfet_01v8_lvt ad=0.0725 pd=0.79 as=0 ps=0 w=0.5 l=1
X202 VDD.t101 VDD.t100 VDD.t101 VDD.t32 sky130_fd_pr__pfet_01v8_lvt ad=0.725 pd=5.29 as=0 ps=0 w=5 l=1
X203 VDD.t33 a_24582_n32542.t16 a_25356_n32542.t0 VDD.t32 sky130_fd_pr__pfet_01v8_lvt ad=0.725 pd=5.29 as=0.725 ps=5.29 w=5 l=1
X204 VDD.t256 a_25045_n33883.t6 CG2_0.Vbias.t0 VDD.t255 sky130_fd_pr__pfet_01v8_lvt ad=0.232 pd=2.18 as=0.232 ps=2.18 w=0.8 l=1
X205 VDD.t99 VDD.t98 VDD.t99 VDD.t19 sky130_fd_pr__pfet_01v8_lvt ad=0.725 pd=5.29 as=0 ps=0 w=5 l=1
X206 VDD.t97 VDD.t95 VDD.t97 VDD.t96 sky130_fd_pr__pfet_01v8_lvt ad=0.725 pd=5.29 as=0 ps=0 w=5 l=1
X207 VDD.t20 a_24582_n32542.t2 a_24582_n32542.t3 VDD.t19 sky130_fd_pr__pfet_01v8_lvt ad=0.725 pd=5.29 as=0.725 ps=5.29 w=5 l=1
X208 a_30192_n32542.t6 a_26874_n30469.t12 VDD.t269 VDD.t96 sky130_fd_pr__pfet_01v8_lvt ad=0.725 pd=5.29 as=0.725 ps=5.29 w=5 l=1
X209 VDD.t94 VDD.t92 VDD.t94 VDD.t93 sky130_fd_pr__pfet_01v8_lvt ad=0.725 pd=5.29 as=0 ps=0 w=5 l=1
X210 GND.t88 GND.t87 GND.t88 GND.t19 sky130_fd_pr__nfet_01v8_lvt ad=0.0725 pd=0.79 as=0 ps=0 w=0.5 l=1
X211 a_26079_n35175.t2 a_26079_n35175.t1 GND.t18 GND.t17 sky130_fd_pr__nfet_01v8_lvt ad=0.145 pd=1.58 as=0.0725 ps=0.79 w=0.5 l=1
X212 GND.t86 GND.t85 GND.t86 GND.t0 sky130_fd_pr__nfet_01v8_lvt ad=0.0725 pd=0.79 as=0 ps=0 w=0.5 l=1
X213 GND.t36 CG2_0.Vbias.t12 a_25098_n32542.t3 GND.t0 sky130_fd_pr__nfet_01v8_lvt ad=0.0725 pd=0.79 as=0.0725 ps=0.79 w=0.5 l=1
X214 GND.t84 GND.t83 GND.t84 GND.t0 sky130_fd_pr__nfet_01v8_lvt ad=0.0725 pd=0.79 as=0 ps=0 w=0.5 l=1
X215 VDD.t91 VDD.t89 VDD.t91 VDD.t90 sky130_fd_pr__pfet_01v8_lvt ad=6.67 pd=46.29 as=0 ps=0 w=46 l=1
X216 GND.t82 GND.t81 GND.t82 GND.t10 sky130_fd_pr__nfet_01v8_lvt ad=0.0725 pd=0.79 as=0 ps=0 w=0.5 l=1
X217 a_25098_n32542.t2 CG2_0.Vbias.t13 GND.t223 GND.t176 sky130_fd_pr__nfet_01v8_lvt ad=0.0725 pd=0.79 as=0.0725 ps=0.79 w=0.5 l=1
X218 VDD.t88 VDD.t86 VDD.t88 VDD.t87 sky130_fd_pr__pfet_01v8_lvt ad=0.725 pd=5.29 as=0 ps=0 w=5 l=1
X219 a_27390_n30469.t5 a_25356_n32542.t23 VDD.t239 VDD.t87 sky130_fd_pr__pfet_01v8_lvt ad=0.725 pd=5.29 as=0.725 ps=5.29 w=5 l=1
X220 GND.t80 GND.t79 GND.t80 GND.t13 sky130_fd_pr__nfet_01v8_lvt ad=0.0725 pd=0.79 as=0 ps=0 w=0.5 l=1
X221 GND.t78 GND.t77 GND.t78 GND.t0 sky130_fd_pr__nfet_01v8_lvt ad=0.0725 pd=0.79 as=0 ps=0 w=0.5 l=1
X222 V_ldo.t7 a_30192_n32542.t30 VDD.t23 VDD.t22 sky130_fd_pr__pfet_01v8_lvt ad=6.67 pd=46.29 as=6.67 ps=46.29 w=46 l=1
X223 GND.t76 GND.t75 GND.t76 GND.t8 sky130_fd_pr__nfet_01v8_lvt ad=0.0725 pd=0.79 as=0 ps=0 w=0.5 l=1
X224 V_ldo.t13 a_30192_n32542.t31 VDD.t37 VDD.t36 sky130_fd_pr__pfet_01v8_lvt ad=6.67 pd=46.29 as=6.67 ps=46.29 w=46 l=1
X225 GND.t6 GND.t7 GND.t5 sky130_fd_pr__res_xhigh_po_0p35 l=6.13
X226 VDD.t85 VDD.t83 VDD.t85 VDD.t84 sky130_fd_pr__pfet_01v8_lvt ad=0.725 pd=5.29 as=0 ps=0 w=5 l=1
X227 a_24646_n35924.t6 a_24646_n35924.t5 a_24646_n35924.t6 VDD.t21 sky130_fd_pr__pfet_01v8_lvt ad=0.0725 pd=0.79 as=0 ps=0 w=0.5 l=1
X228 a_24646_n35924.t4 a_24646_n35924.t2 a_24646_n35924.t3 VDD.t21 sky130_fd_pr__pfet_01v8_lvt ad=0.145 pd=1.58 as=0 ps=0 w=0.5 l=1
X229 GND.t74 GND.t73 GND.t74 GND.t27 sky130_fd_pr__nfet_01v8_lvt ad=0.0725 pd=0.79 as=0 ps=0 w=0.5 l=1
X230 GND.t9 a_26079_n35175.t3 a_26649_n35120.t0 GND.t8 sky130_fd_pr__nfet_01v8_lvt ad=0.0725 pd=0.79 as=0.0725 ps=0.79 w=0.5 l=1
X231 GND.t72 GND.t69 GND.t71 GND.t70 sky130_fd_pr__nfet_01v8_lvt ad=0.1943 pd=1.92 as=0 ps=0 w=0.67 l=1
X232 VDD.t268 a_26874_n30469.t13 a_30192_n32542.t5 VDD.t81 sky130_fd_pr__pfet_01v8_lvt ad=0.725 pd=5.29 as=0.725 ps=5.29 w=5 l=1
X233 VDD.t82 VDD.t80 VDD.t82 VDD.t81 sky130_fd_pr__pfet_01v8_lvt ad=0.725 pd=5.29 as=0 ps=0 w=5 l=1
X234 VDD.t79 VDD.t77 VDD.t79 VDD.t78 sky130_fd_pr__pfet_01v8_lvt ad=0.725 pd=5.29 as=0 ps=0 w=5 l=1
X235 GND.t68 GND.t67 GND.t68 GND.t0 sky130_fd_pr__nfet_01v8_lvt ad=0.0725 pd=0.79 as=0 ps=0 w=0.5 l=1
X236 GND.t66 GND.t65 GND.t66 GND.t0 sky130_fd_pr__nfet_01v8_lvt ad=0.0725 pd=0.79 as=0 ps=0 w=0.5 l=1
X237 VDD.t27 a_30192_n32542.t32 V_ldo.t9 VDD.t26 sky130_fd_pr__pfet_01v8_lvt ad=6.67 pd=46.29 as=6.67 ps=46.29 w=46 l=1
X238 GND.t64 GND.t63 GND.t64 GND.t0 sky130_fd_pr__nfet_01v8_lvt ad=0.0725 pd=0.79 as=0 ps=0 w=0.5 l=1
X239 V_ldo.t27 a_30192_n32542.t33 VDD.t277 VDD.t276 sky130_fd_pr__pfet_01v8_lvt ad=6.67 pd=46.29 as=6.67 ps=46.29 w=46 l=1
X240 GND.t62 GND.t59 GND.t61 GND.t60 sky130_fd_pr__nfet_01v8_lvt ad=0.145 pd=1.58 as=0 ps=0 w=0.5 l=1
X241 GND.t58 GND.t56 GND.t58 GND.t57 sky130_fd_pr__nfet_01v8_lvt ad=0.0725 pd=0.79 as=0 ps=0 w=0.5 l=1
X242 a_25356_n32542.t12 V_ref.t1 a_25098_n32542.t11 GND.t159 sky130_fd_pr__nfet_01v8_lvt ad=0.0725 pd=0.79 as=0.0725 ps=0.79 w=0.5 l=1
X243 VDD.t76 VDD.t74 VDD.t76 VDD.t75 sky130_fd_pr__pfet_01v8_lvt ad=0.725 pd=5.29 as=0 ps=0 w=5 l=1
X244 VDD.t238 a_25356_n32542.t24 a_27390_n30469.t4 VDD.t75 sky130_fd_pr__pfet_01v8_lvt ad=0.725 pd=5.29 as=0.725 ps=5.29 w=5 l=1
X245 GND.t55 GND.t53 GND.t55 GND.t54 sky130_fd_pr__nfet_01v8_lvt ad=0.0725 pd=0.79 as=0 ps=0 w=0.5 l=1
X246 VDD.t73 VDD.t72 VDD.t73 VDD.t70 sky130_fd_pr__pfet_01v8_lvt ad=0.725 pd=5.29 as=0 ps=0 w=5 l=1
X247 VDD.t71 VDD.t69 VDD.t71 VDD.t70 sky130_fd_pr__pfet_01v8_lvt ad=0.725 pd=5.29 as=0 ps=0 w=5 l=1
X248 GND.t52 GND.t50 GND.t51 GND.t29 sky130_fd_pr__nfet_01v8_lvt ad=0.145 pd=1.58 as=0 ps=0 w=0.5 l=1
X249 VDD.t35 a_30192_n32542.t34 V_ldo.t12 VDD.t34 sky130_fd_pr__pfet_01v8_lvt ad=6.67 pd=46.29 as=6.67 ps=46.29 w=46 l=1
X250 GND.t49 GND.t48 GND.t49 GND.t0 sky130_fd_pr__nfet_01v8_lvt ad=0.0725 pd=0.79 as=0 ps=0 w=0.5 l=1
X251 V_ldo.t26 a_30192_n32542.t35 VDD.t274 VDD.t273 sky130_fd_pr__pfet_01v8_lvt ad=6.67 pd=46.29 as=6.67 ps=46.29 w=46 l=1
X252 VDD.t68 VDD.t67 VDD.t68 VDD.t38 sky130_fd_pr__pfet_01v8_lvt ad=0.725 pd=5.29 as=0 ps=0 w=5 l=1
X253 a_26649_n35120.t4 a_26649_n35120.t2 a_26649_n35120.t3 GND.t29 sky130_fd_pr__nfet_01v8_lvt ad=0.145 pd=1.58 as=0 ps=0 w=0.5 l=1
X254 GND.t229 a_27390_n30469.t13 a_30192_n32542.t0 GND.t0 sky130_fd_pr__nfet_01v8_lvt ad=0.0725 pd=0.79 as=0.0725 ps=0.79 w=0.5 l=1
X255 GND.t47 GND.t46 GND.t47 GND.t31 sky130_fd_pr__nfet_01v8_lvt ad=0.09715 pd=0.96 as=0 ps=0 w=0.67 l=1
X256 GND.t45 GND.t43 GND.t45 GND.t44 sky130_fd_pr__nfet_01v8_lvt ad=0.0725 pd=0.79 as=0 ps=0 w=0.5 l=1
X257 VDD.t66 VDD.t64 VDD.t66 VDD.t65 sky130_fd_pr__pfet_01v8_lvt ad=0.08555 pd=0.88 as=0 ps=0 w=0.59 l=1
X258 VDD.t63 VDD.t61 VDD.t63 VDD.t62 sky130_fd_pr__pfet_01v8_lvt ad=0.725 pd=5.29 as=0 ps=0 w=5 l=1
X259 a_25356_n32542.t11 a_24582_n32542.t17 VDD.t275 VDD.t62 sky130_fd_pr__pfet_01v8_lvt ad=0.725 pd=5.29 as=0.725 ps=5.29 w=5 l=1
X260 VDD.t60 VDD.t58 VDD.t60 VDD.t59 sky130_fd_pr__pfet_01v8_lvt ad=0.725 pd=5.29 as=0 ps=0 w=5 l=1
X261 VDD.t267 a_26874_n30469.t14 a_30192_n32542.t4 VDD.t59 sky130_fd_pr__pfet_01v8_lvt ad=0.725 pd=5.29 as=0.725 ps=5.29 w=5 l=1
X262 GND.t42 GND.t40 GND.t42 GND.t41 sky130_fd_pr__nfet_01v8_lvt ad=0.0725 pd=0.79 as=0 ps=0 w=0.5 l=1
X263 GND.t232 a_26079_n35175.t4 CG2_0.Vbias.t3 GND.t44 sky130_fd_pr__nfet_01v8_lvt ad=0.0725 pd=0.79 as=0.0725 ps=0.79 w=0.5 l=1
X264 VDD.t57 VDD.t54 VDD.t56 VDD.t55 sky130_fd_pr__pfet_01v8_lvt ad=1.45 pd=10.58 as=0 ps=0 w=5 l=1
X265 VDD.t53 VDD.t51 VDD.t53 VDD.t52 sky130_fd_pr__pfet_01v8_lvt ad=0.725 pd=5.29 as=0 ps=0 w=5 l=1
X266 GND.t39 GND.t38 GND.t39 GND.t0 sky130_fd_pr__nfet_01v8_lvt ad=0.0725 pd=0.79 as=0 ps=0 w=0.5 l=1
X267 VDD.t50 VDD.t47 VDD.t49 VDD.t48 sky130_fd_pr__pfet_01v8_lvt ad=0.145 pd=1.58 as=0 ps=0 w=0.5 l=1
R0 GND.n2593 GND.n30 20752.4
R1 GND.n2362 GND.n32 12080.7
R2 GND.n2362 GND.n31 12034.4
R3 GND.n2592 GND.n31 12028.6
R4 GND.n2592 GND.n32 11982.2
R5 GND.n2359 GND.n129 8337.74
R6 GND.n2359 GND.n130 8337.74
R7 GND.n2351 GND.n130 8337.74
R8 GND.n2351 GND.n129 8337.74